minlp-notes/research-20261001/scip-set-selection/logs/screen/powerflow0039r.scip.s0.log
SCIP version 10.0.3 [precision: 8 byte] [memory: block] [mode: optimized] [LP solver: SoPlex 8.0.3] [GitHash: d409edf9f6]
Copyright (c) 2002-2026 Zuse Institute Berlin (ZIB)

External libraries: 
  Readline 8.3         GNU library for command line editing (gnu.org/s/readline)
  SoPlex 8.0.3         Linear programming solver developed at Zuse Institute Berlin (soplex.zib.de) [GitHash: 13e2ab24]
  CppAD 20180000.0     Algorithmic Differentiation of C++ algorithms developed by B. Bell (github.com/coin-or/CppAD)
  ZLIB 1.3.2           General purpose compression library by J. Gailly and M. Adler (zlib.net)
  LAPACK 3.12.0        General Linear Algebra PACKage (http://www.netlib.org/lapack/)
  MPFR 4.2.2           GNU Multiple Precision Floating-Point Reliable Library (mpfr.org)
  Boost 1.85.0         Boost C++ Libraries (boost.org)
  TinyCThread 1.2      small portable implementation of the C11 threads API (tinycthread.github.io)
  GMP 6.3.0            GNU Multiple Precision Arithmetic Library developed by T. Granlund (gmplib.org)
  AMPL/MP 4.0.4        AMPL .nl file reader library (github.com/ampl/mp)
  Nauty 2.8.8          Computing Graph Automorphism Groups by Brendan D. McKay (users.cecs.anu.edu.au/~bdm/nauty)
  sassy 2.1            Symmetry preprocessor by Markus Anders (github.com/markusa4/sassy)

user parameter file <scip.set> not found - using default parameters

table/nlhdlr_quadratic/active = TRUE
limits/memory = 6000
limits/time = 60
timing/clocktype = 1
nlhdlr/quadratic/useintersectioncuts = TRUE
limits/nodes = 1

read problem </workspace/local-home/.cache/minlplib/minlplib/osil/powerflow0039r.osil>
============

original problem has 284 variables (0 bin, 0 int, 284 cont) and 474 constraints

presolving:
(round 1, fast)       43 del vars, 90 del conss, 0 add conss, 548 chg bounds, 0 chg sides, 0 chg coeffs, 0 upgd conss, 0 impls, 0 clqs, 0 implints
(round 2, fast)       43 del vars, 90 del conss, 0 add conss, 551 chg bounds, 0 chg sides, 0 chg coeffs, 0 upgd conss, 0 impls, 0 clqs, 0 implints
   (0.1s) symmetry computation started: requiring (bin +, int +, cont +), (fixed: bin -, int -, cont -)
   (0.1s) no symmetry present (symcode time: 0.00)
presolving (3 rounds: 3 fast, 1 medium, 1 exhaustive):
 43 deleted vars, 90 deleted constraints, 0 added constraints, 551 tightened bounds, 0 added holes, 0 changed sides, 0 changed coefficients
 0 implications, 0 cliques, 0 implied integral variables (0 bin, 0 int, 0 cont)
presolved problem has 241 variables (0 bin, 0 int, 241 cont) and 345 constraints
     38 constraints of type <linear>
    307 constraints of type <nonlinear>
Presolving Time: 0.06

 time | node  | left  |LP iter|LP it/n|mem/heur|mdpt |vars |cons |rows |cuts |sepa|confs|strbr|  dualbound   | primalbound  |  gap   | compl. 
  0.1s|     1 |     0 |  1829 |     - |    11M |   0 | 961 | 345 |1207 |   0 |  0 |   0 |   0 | 2.579052e+04 |      --      |    Inf | unknown
  0.2s|     1 |     0 |  1843 |     - |    12M |   0 | 961 | 345 |1207 |   0 |  0 |   0 |   0 | 2.579052e+04 |      --      |    Inf | unknown
  0.3s|     1 |     0 |  2045 |     - |    14M |   0 | 961 | 345 |1338 | 131 |  1 |   0 |   0 | 2.669469e+04 |      --      |    Inf | unknown
  0.5s|     1 |     0 |  2241 |     - |    16M |   0 | 961 | 345 |1480 | 273 |  2 |   0 |   0 | 2.695976e+04 |      --      |    Inf | unknown
  0.8s|     1 |     0 |  2452 |     - |    16M |   0 | 961 | 345 |1618 | 411 |  3 |   0 |   0 | 2.702703e+04 |      --      |    Inf | unknown
  0.8s|     1 |     0 |  2452 |     - |    16M |   0 | 961 | 345 |1618 | 411 |  3 |   0 |   0 | 2.702703e+04 |      --      |    Inf | unknown
  1.0s|     1 |     0 |  2627 |     - |    19M |   0 | 961 | 345 |1752 | 545 |  4 |   0 |   0 | 2.703504e+04 |      --      |    Inf | unknown
  1.3s|     1 |     0 |  2903 |     - |    21M |   0 | 961 | 345 |1882 | 675 |  5 |   0 |   0 | 2.706287e+04 |      --      |    Inf | unknown
  1.4s|     1 |     0 |  3102 |     - |    24M |   0 | 961 | 345 |1999 | 792 |  6 |   0 |   0 | 2.706494e+04 |      --      |    Inf | unknown
  1.6s|     1 |     0 |  3299 |     - |    25M |   0 | 961 | 345 |2110 | 903 |  7 |   0 |   0 | 2.706564e+04 |      --      |    Inf | unknown
  1.7s|     1 |     0 |  3663 |     - |    25M |   0 | 961 | 345 |2204 | 997 |  8 |   0 |   0 | 2.711086e+04 |      --      |    Inf | unknown
  1.9s|     1 |     0 |  4110 |     - |    27M |   0 | 961 | 345 |2307 |1100 |  9 |   0 |   0 | 2.721819e+04 |      --      |    Inf | unknown
  2.1s|     1 |     0 |  4546 |     - |    27M |   0 | 961 | 345 |1837 |1198 | 10 |   0 |   0 | 2.726433e+04 |      --      |    Inf | unknown
  2.3s|     1 |     0 |  5152 |     - |    29M |   0 | 961 | 345 |1932 |1293 | 11 |   0 |   0 | 2.731060e+04 |      --      |    Inf | unknown
  2.4s|     1 |     0 |  5647 |     - |    29M |   0 | 961 | 345 |2031 |1392 | 12 |   0 |   0 | 2.742746e+04 |      --      |    Inf | unknown
 time | node  | left  |LP iter|LP it/n|mem/heur|mdpt |vars |cons |rows |cuts |sepa|confs|strbr|  dualbound   | primalbound  |  gap   | compl. 
  2.6s|     1 |     0 |  6523 |     - |    29M |   0 | 961 | 345 |2120 |1481 | 13 |   0 |   0 | 2.756496e+04 |      --      |    Inf | unknown
  2.8s|     1 |     0 |  7334 |     - |    29M |   0 | 961 | 345 |2218 |1579 | 14 |   0 |   0 | 2.762067e+04 |      --      |    Inf | unknown
  3.0s|     1 |     0 |  8063 |     - |    29M |   0 | 961 | 345 |2323 |1684 | 15 |   0 |   0 | 2.770623e+04 |      --      |    Inf | unknown
  3.2s|     1 |     0 |  8903 |     - |    30M |   0 | 961 | 345 |1924 |1785 | 16 |   0 |   0 | 2.775648e+04 |      --      |    Inf | unknown
  3.4s|     1 |     0 |  9492 |     - |    30M |   0 | 961 | 345 |2021 |1882 | 17 |   0 |   0 | 2.780570e+04 |      --      |    Inf | unknown
  3.7s|     1 |     0 | 10145 |     - |    30M |   0 | 961 | 345 |2117 |1978 | 18 |   0 |   0 | 2.783685e+04 |      --      |    Inf | unknown
  3.9s|     1 |     0 | 11085 |     - |    30M |   0 | 961 | 345 |2206 |2067 | 19 |   0 |   0 | 2.786977e+04 |      --      |    Inf | unknown
  4.2s|     1 |     0 | 12507 |     - |    30M |   0 | 961 | 345 |2301 |2162 | 20 |   0 |   0 | 2.822669e+04 |      --      |    Inf | unknown
  4.3s|     1 |     0 | 13344 |     - |    30M |   0 | 961 | 345 |2391 |2252 | 21 |   0 |   0 | 2.827394e+04 |      --      |    Inf | unknown
  4.4s|     1 |     0 | 13344 |     - |    30M |   0 | 961 | 345 |2391 |2252 | 21 |   0 |   0 | 2.827394e+04 |      --      |    Inf | unknown
  4.6s|     1 |     0 | 14262 |     - |    30M |   0 | 961 | 345 |1820 |2336 | 22 |   0 |   0 | 2.836736e+04 |      --      |    Inf | unknown
  4.8s|     1 |     0 | 14960 |     - |    30M |   0 | 961 | 345 |1907 |2423 | 23 |   0 |   0 | 2.844108e+04 |      --      |    Inf | unknown
  5.0s|     1 |     0 | 15795 |     - |    30M |   0 | 961 | 345 |1980 |2496 | 24 |   0 |   0 | 2.856859e+04 |      --      |    Inf | unknown
  5.1s|     1 |     0 | 16529 |     - |    30M |   0 | 961 | 345 |2070 |2586 | 25 |   0 |   0 | 2.863299e+04 |      --      |    Inf | unknown
  5.3s|     1 |     0 | 17821 |     - |    32M |   0 | 961 | 345 |2151 |2667 | 26 |   0 |   0 | 2.885701e+04 |      --      |    Inf | unknown
 time | node  | left  |LP iter|LP it/n|mem/heur|mdpt |vars |cons |rows |cuts |sepa|confs|strbr|  dualbound   | primalbound  |  gap   | compl. 
  5.5s|     1 |     0 | 18993 |     - |    32M |   0 | 961 | 345 |2233 |2749 | 27 |   0 |   0 | 2.903295e+04 |      --      |    Inf | unknown
  5.6s|     1 |     0 | 19816 |     - |    32M |   0 | 961 | 345 |1691 |2825 | 28 |   0 |   0 | 2.930565e+04 |      --      |    Inf | unknown
  5.7s|     1 |     0 | 21041 |     - |    32M |   0 | 961 | 345 |1779 |2913 | 29 |   0 |   0 | 3.045024e+04 |      --      |    Inf | unknown
  5.7s|     1 |     0 | 21041 |     - |    32M |   0 | 961 | 345 |1779 |2913 | 29 |   0 |   0 | 3.045024e+04 |      --      |    Inf | unknown
  5.8s|     1 |     0 | 21358 |     - |    32M |   0 | 961 | 345 |1862 |2996 | 30 |   0 |   0 | 3.049787e+04 |      --      |    Inf | unknown
  5.8s|     1 |     0 | 21583 |     - |    32M |   0 | 961 | 345 |1943 |3077 | 31 |   0 |   0 | 3.055431e+04 |      --      |    Inf | unknown
  5.9s|     1 |     0 | 22388 |     - |    32M |   0 | 961 | 345 |2014 |3148 | 32 |   0 |   0 | 3.121025e+04 |      --      |    Inf | unknown
  5.9s|     1 |     0 | 23153 |     - |    32M |   0 | 961 | 345 |2093 |3227 | 33 |   0 |   0 | 3.153059e+04 |      --      |    Inf | unknown
  6.2s|     1 |     0 | 25937 |     - |    32M |   0 | 961 | 345 |1579 |3302 | 34 |   0 |   0 | 3.306896e+04 |      --      |    Inf | unknown
  6.2s|     1 |     0 | 25937 |     - |    32M |   0 | 961 | 345 |1579 |3302 | 34 |   0 |   0 | 3.306896e+04 |      --      |    Inf | unknown
  6.2s|     1 |     0 | 26748 |     - |    32M |   0 | 961 | 345 |1661 |3384 | 35 |   0 |   0 | 3.353866e+04 |      --      |    Inf | unknown
  6.3s|     1 |     0 | 27596 |     - |    32M |   0 | 961 | 345 |1739 |3462 | 36 |   0 |   0 | 3.365598e+04 |      --      |    Inf | unknown
  6.4s|     1 |     0 | 28558 |     - |    32M |   0 | 961 | 345 |1815 |3538 | 37 |   0 |   0 | 3.387967e+04 |      --      |    Inf | unknown
  6.5s|     1 |     0 | 29545 |     - |    32M |   0 | 961 | 345 |1895 |3618 | 38 |   0 |   0 | 3.416123e+04 |      --      |    Inf | unknown
  6.5s|     1 |     0 | 29966 |     - |    32M |   0 | 961 | 345 |1969 |3692 | 39 |   0 |   0 | 3.423733e+04 |      --      |    Inf | unknown
 time | node  | left  |LP iter|LP it/n|mem/heur|mdpt |vars |cons |rows |cuts |sepa|confs|strbr|  dualbound   | primalbound  |  gap   | compl. 
  6.7s|     1 |     0 | 31877 |     - |    32M |   0 | 961 | 345 |1466 |3757 | 40 |   0 |   0 | 3.456383e+04 |      --      |    Inf | unknown
  6.7s|     1 |     0 | 32368 |     - |    32M |   0 | 961 | 345 |1537 |3828 | 41 |   0 |   0 | 3.479666e+04 |      --      |    Inf | unknown
  6.7s|     1 |     0 | 32368 |     - |    32M |   0 | 961 | 345 |1537 |3828 | 41 |   0 |   0 | 3.479666e+04 |      --      |    Inf | unknown
  6.7s|     1 |     0 | 32959 |     - |    32M |   0 | 961 | 345 |1603 |3894 | 42 |   0 |   0 | 3.500625e+04 |      --      |    Inf | unknown
  6.9s|     1 |     0 | 35028 |     - |    32M |   0 | 961 | 345 |1670 |3961 | 43 |   0 |   0 | 3.679092e+04 |      --      |    Inf | unknown
  6.9s|     1 |     0 | 35028 |     - |    32M |   0 | 961 | 345 |1670 |3961 | 43 |   0 |   0 | 3.679092e+04 |      --      |    Inf | unknown
  6.9s|     1 |     0 | 35389 |     - |    32M |   0 | 961 | 345 |1738 |4029 | 44 |   0 |   0 | 3.694577e+04 |      --      |    Inf | unknown
  7.0s|     1 |     0 | 36220 |     - |    32M |   0 | 961 | 345 |1802 |4093 | 45 |   0 |   0 | 3.714815e+04 |      --      |    Inf | unknown
  7.1s|     1 |     0 | 37676 |     - |    32M |   0 | 961 | 345 |1398 |4157 | 46 |   0 |   0 | 3.757741e+04 |      --      |    Inf | unknown
  7.1s|     1 |     0 | 38408 |     - |    32M |   0 | 961 | 345 |1466 |4225 | 47 |   0 |   0 | 3.800881e+04 |      --      |    Inf | unknown
  7.2s|     1 |     0 | 38793 |     - |    32M |   0 | 961 | 345 |1534 |4293 | 48 |   0 |   0 | 3.807825e+04 |      --      |    Inf | unknown
  7.2s|     1 |     0 | 39219 |     - |    32M |   0 | 961 | 345 |1606 |4365 | 49 |   0 |   0 | 3.823530e+04 |      --      |    Inf | unknown
  7.3s|     1 |     0 | 40135 |     - |    32M |   0 | 961 | 345 |1680 |4439 | 50 |   0 |   0 | 3.833521e+04 |      --      |    Inf | unknown
  7.3s|     1 |     0 | 41358 |     - |    32M |   0 | 961 | 345 |1742 |4501 | 51 |   0 |   0 | 3.845896e+04 |      --      |    Inf | unknown
  7.4s|     1 |     0 | 42053 |     - |    32M |   0 | 961 | 345 |1330 |4567 | 52 |   0 |   0 | 3.856983e+04 |      --      |    Inf | unknown
 time | node  | left  |LP iter|LP it/n|mem/heur|mdpt |vars |cons |rows |cuts |sepa|confs|strbr|  dualbound   | primalbound  |  gap   | compl. 
  7.4s|     1 |     0 | 42053 |     - |    32M |   0 | 961 | 345 |1330 |4567 | 52 |   0 |   0 | 3.856983e+04 |      --      |    Inf | unknown
  7.5s|     1 |     0 | 42978 |     - |    32M |   0 | 961 | 345 |1396 |4633 | 53 |   0 |   0 | 3.862770e+04 |      --      |    Inf | unknown
  7.5s|     1 |     0 | 44061 |     - |    32M |   0 | 961 | 345 |1464 |4701 | 54 |   0 |   0 | 3.871475e+04 |      --      |    Inf | unknown
  7.6s|     1 |     0 | 44831 |     - |    32M |   0 | 961 | 345 |1517 |4754 | 55 |   0 |   0 | 3.875144e+04 |      --      |    Inf | unknown
  7.6s|     1 |     0 | 45231 |     - |    32M |   0 | 961 | 345 |1567 |4804 | 56 |   0 |   0 | 3.883704e+04 |      --      |    Inf | unknown
  7.7s|     1 |     0 | 45728 |     - |    32M |   0 | 961 | 345 |1622 |4859 | 57 |   0 |   0 | 3.893614e+04 |      --      |    Inf | unknown
  7.7s|     1 |     0 | 46252 |     - |    33M |   0 | 961 | 345 |1270 |4920 | 58 |   0 |   0 | 3.898866e+04 |      --      |    Inf | unknown
  7.8s|     1 |     0 | 47221 |     - |    33M |   0 | 961 | 345 |1327 |4977 | 59 |   0 |   0 | 3.913430e+04 |      --      |    Inf | unknown
  7.8s|     1 |     0 | 48085 |     - |    33M |   0 | 961 | 345 |1384 |5034 | 60 |   0 |   0 | 3.921253e+04 |      --      |    Inf | unknown
  7.9s|     1 |     0 | 49088 |     - |    33M |   0 | 961 | 345 |1444 |5094 | 61 |   0 |   0 | 3.943266e+04 |      --      |    Inf | unknown
  8.0s|     1 |     0 | 49235 |     - |    33M |   0 | 961 | 345 |1506 |5156 | 62 |   0 |   0 | 3.944658e+04 |      --      |    Inf | unknown
  8.0s|     1 |     0 | 49406 |     - |    33M |   0 | 961 | 345 |1566 |5216 | 63 |   0 |   0 | 3.947151e+04 |      --      |    Inf | unknown
  8.0s|     1 |     0 | 50149 |     - |    33M |   0 | 961 | 345 |1220 |5277 | 64 |   0 |   0 | 3.955140e+04 |      --      |    Inf | unknown
  8.1s|     1 |     0 | 50812 |     - |    33M |   0 | 961 | 345 |1274 |5331 | 65 |   0 |   0 | 3.961241e+04 |      --      |    Inf | unknown
  8.1s|     1 |     0 | 51106 |     - |    33M |   0 | 961 | 345 |1331 |5388 | 66 |   0 |   0 | 3.969091e+04 |      --      |    Inf | unknown
 time | node  | left  |LP iter|LP it/n|mem/heur|mdpt |vars |cons |rows |cuts |sepa|confs|strbr|  dualbound   | primalbound  |  gap   | compl. 
  8.1s|     1 |     0 | 51541 |     - |    33M |   0 | 961 | 345 |1398 |5455 | 67 |   0 |   0 | 3.972819e+04 |      --      |    Inf | unknown
  8.2s|     1 |     0 | 51940 |     - |    33M |   0 | 961 | 345 |1458 |5515 | 68 |   0 |   0 | 3.978487e+04 |      --      |    Inf | unknown
  8.2s|     1 |     0 | 52402 |     - |    33M |   0 | 961 | 345 |1518 |5575 | 69 |   0 |   0 | 3.983379e+04 |      --      |    Inf | unknown
  8.2s|     1 |     0 | 52555 |     - |    33M |   0 | 961 | 345 |1240 |5634 | 70 |   0 |   0 | 3.984471e+04 |      --      |    Inf | unknown
  8.3s|     1 |     0 | 53193 |     - |    33M |   0 | 961 | 345 |1288 |5682 | 71 |   0 |   0 | 3.990171e+04 |      --      |    Inf | unknown
  8.3s|     1 |     0 | 53485 |     - |    33M |   0 | 961 | 345 |1340 |5734 | 72 |   0 |   0 | 3.993900e+04 |      --      |    Inf | unknown
  8.3s|     1 |     0 | 54016 |     - |    33M |   0 | 961 | 345 |1390 |5784 | 73 |   0 |   0 | 3.997557e+04 |      --      |    Inf | unknown
  8.4s|     1 |     0 | 54333 |     - |    33M |   0 | 961 | 345 |1437 |5831 | 74 |   0 |   0 | 3.999793e+04 |      --      |    Inf | unknown
  8.4s|     1 |     0 | 55208 |     - |    33M |   0 | 961 | 345 |1484 |5878 | 75 |   0 |   0 | 4.009397e+04 |      --      |    Inf | unknown
  8.5s|     1 |     0 | 56613 |     - |    33M |   0 | 961 | 345 |1200 |5932 | 76 |   0 |   0 | 4.017160e+04 |      --      |    Inf | unknown
  8.6s|     1 |     0 | 57362 |     - |    33M |   0 | 961 | 345 |1256 |5988 | 77 |   0 |   0 | 4.028683e+04 |      --      |    Inf | unknown
  8.6s|     1 |     0 | 57452 |     - |    33M |   0 | 961 | 345 |1304 |6036 | 78 |   0 |   0 | 4.028821e+04 |      --      |    Inf | unknown
  8.6s|     1 |     0 | 57761 |     - |    33M |   0 | 961 | 345 |1346 |6078 | 79 |   0 |   0 | 4.035352e+04 |      --      |    Inf | unknown
  8.7s|     1 |     0 | 58452 |     - |    33M |   0 | 961 | 345 |1395 |6127 | 80 |   0 |   0 | 4.039165e+04 |      --      |    Inf | unknown
  8.7s|     1 |     0 | 58452 |     - |    33M |   0 | 961 | 345 |1395 |6127 | 80 |   0 |   0 | 4.039165e+04 |      --      |    Inf | unknown
 time | node  | left  |LP iter|LP it/n|mem/heur|mdpt |vars |cons |rows |cuts |sepa|confs|strbr|  dualbound   | primalbound  |  gap   | compl. 
  8.7s|     1 |     0 | 58940 |     - |    33M |   0 | 961 | 345 |1438 |6170 | 81 |   0 |   0 | 4.041331e+04 |      --      |    Inf | unknown
  8.8s|     1 |     0 | 59679 |     - |    33M |   0 | 961 | 345 |1146 |6214 | 82 |   0 |   0 | 4.046791e+04 |      --      |    Inf | unknown
  8.8s|     1 |     0 | 59989 |     - |    33M |   0 | 961 | 345 |1198 |6266 | 83 |   0 |   0 | 4.047899e+04 |      --      |    Inf | unknown
  8.8s|     1 |     0 | 60922 |     - |    33M |   0 | 961 | 345 |1247 |6315 | 84 |   0 |   0 | 4.053047e+04 |      --      |    Inf | unknown
  8.9s|     1 |     0 | 61113 |     - |    33M |   0 | 961 | 345 |1310 |6378 | 85 |   0 |   0 | 4.053325e+04 |      --      |    Inf | unknown
  8.9s|     1 |     0 | 61657 |     - |    33M |   0 | 961 | 345 |1362 |6430 | 86 |   0 |   0 | 4.054621e+04 |      --      |    Inf | unknown
  8.9s|     1 |     0 | 62055 |     - |    33M |   0 | 961 | 345 |1409 |6477 | 87 |   0 |   0 | 4.057957e+04 |      --      |    Inf | unknown
  9.0s|     1 |     0 | 62182 |     - |    33M |   0 | 961 | 345 |1150 |6523 | 88 |   0 |   0 | 4.059090e+04 |      --      |    Inf | unknown
  9.0s|     1 |     0 | 62419 |     - |    33M |   0 | 961 | 345 |1184 |6557 | 89 |   0 |   0 | 4.063197e+04 |      --      |    Inf | unknown
  9.1s|     1 |     0 | 62914 |     - |    33M |   0 | 961 | 345 |1226 |6599 | 90 |   0 |   0 | 4.074405e+04 |      --      |    Inf | unknown
  9.1s|     1 |     0 | 63013 |     - |    33M |   0 | 961 | 345 |1286 |6659 | 91 |   0 |   0 | 4.075149e+04 |      --      |    Inf | unknown
  9.1s|     1 |     0 | 63194 |     - |    33M |   0 | 961 | 345 |1341 |6714 | 92 |   0 |   0 | 4.077287e+04 |      --      |    Inf | unknown
  9.1s|     1 |     0 | 63530 |     - |    33M |   0 | 961 | 345 |1399 |6772 | 93 |   0 |   0 | 4.079946e+04 |      --      |    Inf | unknown
  9.2s|     1 |     0 | 63726 |     - |    33M |   0 | 961 | 345 |1197 |6817 | 94 |   0 |   0 | 4.082875e+04 |      --      |    Inf | unknown
  9.2s|     1 |     0 | 64007 |     - |    33M |   0 | 961 | 345 |1241 |6861 | 95 |   0 |   0 | 4.085635e+04 |      --      |    Inf | unknown
 time | node  | left  |LP iter|LP it/n|mem/heur|mdpt |vars |cons |rows |cuts |sepa|confs|strbr|  dualbound   | primalbound  |  gap   | compl. 
  9.2s|     1 |     0 | 64943 |     - |    33M |   0 | 961 | 345 |1291 |6911 | 96 |   0 |   0 | 4.093842e+04 |      --      |    Inf | unknown
  9.3s|     1 |     0 | 65171 |     - |    33M |   0 | 961 | 345 |1344 |6964 | 97 |   0 |   0 | 4.094837e+04 |      --      |    Inf | unknown
  9.3s|     1 |     0 | 65883 |     - |    33M |   0 | 961 | 345 |1390 |7010 | 98 |   0 |   0 | 4.098248e+04 |      --      |    Inf | unknown
  9.3s|     1 |     0 | 66437 |     - |    33M |   0 | 961 | 345 |1442 |7062 | 99 |   0 |   0 | 4.098494e+04 |      --      |    Inf | unknown
  9.4s|     1 |     0 | 66779 |     - |    33M |   0 | 961 | 345 |1154 |7107 |100 |   0 |   0 | 4.099298e+04 |      --      |    Inf | unknown
  9.4s|     1 |     0 | 67223 |     - |    33M |   0 | 961 | 345 |1190 |7143 |101 |   0 |   0 | 4.099652e+04 |      --      |    Inf | unknown
  9.4s|     1 |     0 | 67624 |     - |    33M |   0 | 961 | 345 |1229 |7182 |102 |   0 |   0 | 4.100124e+04 |      --      |    Inf | unknown
  9.5s|     1 |     0 | 67822 |     - |    33M |   0 | 961 | 345 |1264 |7217 |103 |   0 |   0 | 4.100314e+04 |      --      |    Inf | unknown
  9.5s|     1 |     0 | 68316 |     - |    33M |   0 | 961 | 345 |1304 |7257 |104 |   0 |   0 | 4.100746e+04 |      --      |    Inf | unknown
  9.6s|     1 |     0 | 69805 |     - |    33M |   0 | 961 | 345 |1336 |7289 |105 |   0 |   0 | 4.102634e+04 |      --      |    Inf | unknown
  9.6s|     1 |     0 | 70171 |     - |    33M |   0 | 961 | 345 |1046 |7325 |106 |   0 |   0 | 4.102782e+04 |      --      |    Inf | unknown
  9.6s|     1 |     0 | 70403 |     - |    33M |   0 | 961 | 345 |1079 |7358 |107 |   0 |   0 | 4.104381e+04 |      --      |    Inf | unknown
  9.6s|     1 |     0 | 70661 |     - |    33M |   0 | 961 | 345 |1118 |7397 |108 |   0 |   0 | 4.104592e+04 |      --      |    Inf | unknown
  9.7s|     1 |     0 | 70750 |     - |    33M |   0 | 961 | 345 |1155 |7434 |109 |   0 |   0 | 4.104700e+04 |      --      |    Inf | unknown
  9.7s|     1 |     0 | 71245 |     - |    33M |   0 | 961 | 345 |1196 |7475 |110 |   0 |   0 | 4.104775e+04 |      --      |    Inf | unknown
 time | node  | left  |LP iter|LP it/n|mem/heur|mdpt |vars |cons |rows |cuts |sepa|confs|strbr|  dualbound   | primalbound  |  gap   | compl. 
  9.7s|     1 |     0 | 71531 |     - |    33M |   0 | 961 | 345 |1227 |7506 |111 |   0 |   0 | 4.104811e+04 |      --      |    Inf | unknown
  9.7s|     1 |     0 | 71606 |     - |    33M |   0 | 961 | 345 | 982 |7538 |112 |   0 |   0 | 4.104865e+04 |      --      |    Inf | unknown
  9.8s|     1 |     0 | 71666 |     - |    33M |   0 | 961 | 345 |1012 |7568 |113 |   0 |   0 | 4.104975e+04 |      --      |    Inf | unknown
  9.8s|     1 |     0 | 71811 |     - |    33M |   0 | 961 | 345 |1046 |7602 |114 |   0 |   0 | 4.105460e+04 |      --      |    Inf | unknown
  9.8s|     1 |     0 | 71857 |     - |    33M |   0 | 961 | 345 |1078 |7634 |115 |   0 |   0 | 4.105573e+04 |      --      |    Inf | unknown
  9.8s|     1 |     0 | 72021 |     - |    33M |   0 | 961 | 345 |1111 |7667 |116 |   0 |   0 | 4.107069e+04 |      --      |    Inf | unknown
  9.8s|     1 |     0 | 72085 |     - |    33M |   0 | 961 | 345 |1151 |7707 |117 |   0 |   0 | 4.107105e+04 |      --      |    Inf | unknown
  9.8s|     1 |     0 | 72394 |     - |    33M |   0 | 961 | 345 | 983 |7741 |118 |   0 |   0 | 4.107334e+04 |      --      |    Inf | unknown
  9.9s|     1 |     0 | 72464 |     - |    33M |   0 | 961 | 345 |1015 |7773 |119 |   0 |   0 | 4.107346e+04 |      --      |    Inf | unknown
  9.9s|     1 |     0 | 72523 |     - |    33M |   0 | 961 | 345 |1045 |7803 |120 |   0 |   0 | 4.107383e+04 |      --      |    Inf | unknown
  9.9s|     1 |     0 | 72703 |     - |    33M |   0 | 961 | 345 |1070 |7828 |121 |   0 |   0 | 4.107976e+04 |      --      |    Inf | unknown
  9.9s|     1 |     0 | 72847 |     - |    33M |   0 | 961 | 345 |1115 |7873 |122 |   0 |   0 | 4.108177e+04 |      --      |    Inf | unknown
 10.0s|     1 |     0 | 74257 |     - |    33M |   0 | 961 | 345 |1154 |7912 |123 |   0 |   0 | 4.109582e+04 |      --      |    Inf | unknown
 10.0s|     1 |     0 | 74395 |     - |    33M |   0 | 961 | 345 |1008 |7972 |124 |   0 |   0 | 4.109627e+04 |      --      |    Inf | unknown
 10.1s|     1 |     0 | 74475 |     - |    33M |   0 | 961 | 345 |1060 |8024 |125 |   0 |   0 | 4.109750e+04 |      --      |    Inf | unknown
 time | node  | left  |LP iter|LP it/n|mem/heur|mdpt |vars |cons |rows |cuts |sepa|confs|strbr|  dualbound   | primalbound  |  gap   | compl. 
 10.1s|     1 |     0 | 74563 |     - |    33M |   0 | 961 | 345 |1110 |8074 |126 |   0 |   0 | 4.109822e+04 |      --      |    Inf | unknown
 10.2s|     1 |     0 | 75993 |     - |    33M |   0 | 961 | 345 |1157 |8121 |127 |   0 |   0 | 4.112578e+04 |      --      |    Inf | unknown
 10.2s|     1 |     0 | 76387 |     - |    33M |   0 | 961 | 345 |1204 |8168 |128 |   0 |   0 | 4.112848e+04 |      --      |    Inf | unknown
 10.2s|     1 |     0 | 76679 |     - |    33M |   0 | 961 | 345 |1261 |8225 |129 |   0 |   0 | 4.113081e+04 |      --      |    Inf | unknown
 10.2s|     1 |     0 | 76840 |     - |    33M |   0 | 961 | 345 |1106 |8272 |130 |   0 |   0 | 4.113127e+04 |      --      |    Inf | unknown
 10.3s|     1 |     0 | 77207 |     - |    33M |   0 | 961 | 345 |1154 |8320 |131 |   0 |   0 | 4.114107e+04 |      --      |    Inf | unknown
 10.3s|     1 |     0 | 77725 |     - |    33M |   0 | 961 | 345 |1211 |8377 |132 |   0 |   0 | 4.114396e+04 |      --      |    Inf | unknown
 10.4s|     1 |     0 | 78098 |     - |    33M |   0 | 961 | 345 |1262 |8428 |133 |   0 |   0 | 4.114581e+04 |      --      |    Inf | unknown
 10.4s|     1 |     0 | 78482 |     - |    33M |   0 | 961 | 345 |1311 |8477 |134 |   0 |   0 | 4.114715e+04 |      --      |    Inf | unknown
 10.4s|     1 |     0 | 78535 |     - |    33M |   0 | 961 | 345 |1357 |8523 |135 |   0 |   0 | 4.114731e+04 |      --      |    Inf | unknown
 10.4s|     1 |     0 | 78850 |     - |    33M |   0 | 961 | 345 |1115 |8562 |136 |   0 |   0 | 4.114758e+04 |      --      |    Inf | unknown
 10.5s|     1 |     0 | 79220 |     - |    33M |   0 | 961 | 345 |1159 |8606 |137 |   0 |   0 | 4.114840e+04 |      --      |    Inf | unknown
 10.5s|     1 |     0 | 79346 |     - |    33M |   0 | 961 | 345 |1202 |8649 |138 |   0 |   0 | 4.114858e+04 |      --      |    Inf | unknown
 10.5s|     1 |     0 | 79528 |     - |    33M |   0 | 961 | 345 |1235 |8682 |139 |   0 |   0 | 4.115042e+04 |      --      |    Inf | unknown
 10.6s|     1 |     0 | 80567 |     - |    33M |   0 | 961 | 345 |1272 |8719 |140 |   0 |   0 | 4.115449e+04 |      --      |    Inf | unknown
 time | node  | left  |LP iter|LP it/n|mem/heur|mdpt |vars |cons |rows |cuts |sepa|confs|strbr|  dualbound   | primalbound  |  gap   | compl. 
 10.7s|     1 |     0 | 81371 |     - |    33M |   0 | 961 | 345 |1320 |8767 |141 |   0 |   0 | 4.116371e+04 |      --      |    Inf | unknown
 10.7s|     1 |     0 | 81603 |     - |    33M |   0 | 961 | 345 |1095 |8818 |142 |   0 |   0 | 4.116445e+04 |      --      |    Inf | unknown
 10.7s|     1 |     0 | 81661 |     - |    33M |   0 | 961 | 345 |1139 |8862 |143 |   0 |   0 | 4.116521e+04 |      --      |    Inf | unknown
 10.7s|     1 |     0 | 82225 |     - |    33M |   0 | 961 | 345 |1180 |8903 |144 |   0 |   0 | 4.116639e+04 |      --      |    Inf | unknown
 10.7s|     1 |     0 | 82271 |     - |    33M |   0 | 961 | 345 |1228 |8951 |145 |   0 |   0 | 4.116640e+04 |      --      |    Inf | unknown
 10.8s|     1 |     0 | 82981 |     - |    33M |   0 | 961 | 345 |1261 |8984 |146 |   0 |   0 | 4.116861e+04 |      --      |    Inf | unknown
 10.8s|     1 |     0 | 83716 |     - |    33M |   0 | 961 | 345 |1309 |9032 |147 |   0 |   0 | 4.117581e+04 |      --      |    Inf | unknown
 10.9s|     1 |     0 | 83894 |     - |    33M |   0 | 961 | 345 |1075 |9075 |148 |   0 |   0 | 4.117592e+04 |      --      |    Inf | unknown
 10.9s|     1 |     0 | 83938 |     - |    33M |   0 | 961 | 345 |1120 |9120 |149 |   0 |   0 | 4.117596e+04 |      --      |    Inf | unknown
 10.9s|     1 |     0 | 84081 |     - |    33M |   0 | 961 | 345 |1140 |9140 |150 |   0 |   0 | 4.117996e+04 |      --      |    Inf | unknown
 10.9s|     1 |     0 | 84289 |     - |    33M |   0 | 961 | 345 |1186 |9186 |151 |   0 |   0 | 4.118023e+04 |      --      |    Inf | unknown
 10.9s|     1 |     0 | 84333 |     - |    33M |   0 | 961 | 345 |1223 |9223 |152 |   0 |   0 | 4.118023e+04 |      --      |    Inf | unknown
 10.9s|     1 |     0 | 84461 |     - |    33M |   0 | 961 | 345 |1249 |9249 |153 |   0 |   0 | 4.118098e+04 |      --      |    Inf | unknown
 11.0s|     1 |     0 | 84710 |     - |    33M |   0 | 961 | 345 |1021 |9289 |154 |   0 |   0 | 4.118142e+04 |      --      |    Inf | unknown
 11.0s|     1 |     0 | 84831 |     - |    33M |   0 | 961 | 345 |1073 |9341 |155 |   0 |   0 | 4.118221e+04 |      --      |    Inf | unknown
 time | node  | left  |LP iter|LP it/n|mem/heur|mdpt |vars |cons |rows |cuts |sepa|confs|strbr|  dualbound   | primalbound  |  gap   | compl. 
 11.0s|     1 |     0 | 84871 |     - |    33M |   0 | 961 | 345 |1109 |9377 |156 |   0 |   0 | 4.118244e+04 |      --      |    Inf | unknown
 11.0s|     1 |     0 | 85060 |     - |    33M |   0 | 961 | 345 |1132 |9400 |157 |   0 |   0 | 4.118357e+04 |      --      |    Inf | unknown
 22.8s|     1 |     0 |210380 |     - |    33M |   0 | 961 | 345 |1180 |9448 |157 |   0 |   0 | 4.118357e+04 |      --      |    Inf | unknown
 22.8s|     1 |     0 |210418 |     - |    33M |   0 | 961 | 345 | 961 |9489 |158 |   0 |   0 | 4.118357e+04 |      --      |    Inf | unknown
 22.8s|     1 |     0 |210424 |     - |    33M |   0 | 961 | 345 | 967 |9495 |159 |   0 |   0 | 4.118357e+04 |      --      |    Inf | unknown
 22.8s|     1 |     0 |210446 |     - |    33M |   0 | 961 | 345 | 998 |9526 |160 |   0 |   0 | 4.118357e+04 |      --      |    Inf | unknown
 22.8s|     1 |     0 |210447 |     - |    33M |   0 | 961 | 345 | 999 |9527 |161 |   0 |   0 | 4.118357e+04 |      --      |    Inf | unknown
 22.8s|     1 |     0 |210479 |     - |    33M |   0 | 961 | 345 |1031 |9559 |162 |   0 |   0 | 4.118357e+04 |      --      |    Inf | unknown
 22.8s|     1 |     0 |210481 |     - |    33M |   0 | 961 | 345 |1032 |9560 |163 |   0 |   0 | 4.118357e+04 |      --      |    Inf | unknown
 22.8s|     1 |     0 |210500 |     - |    33M |   0 | 961 | 345 | 799 |9583 |164 |   0 |   0 | 4.118357e+04 |      --      |    Inf | unknown
 22.8s|     1 |     2 |210500 |     - |    33M |   0 | 961 | 345 | 799 |9583 |165 |   0 |   0 | 4.118357e+04 |      --      |    Inf | unknown

SCIP Status        : solving was interrupted [node limit reached]
Solving Time (sec) : 22.84
Solving Nodes      : 1
Primal Bound       : +1.00000000000000e+20 (0 solutions)
Dual Bound         : +4.11835737802242e+04
Gap                : infinite


SCIP Status        : solving was interrupted [node limit reached]
Total Time         :      22.85
  solving          :      22.84
  presolving       :       0.06 (included in solving)
  reading          :       0.01
  copying          :       0.00 (1 #copies) (minimal 0.00, maximal 0.00, average 0.00)
Original Problem   :
  Problem name     : powerflow0039r
  Variables        : 284 (0 binary, 0 integer, 284 continuous)
  Implied int vars : 0 (0 binary, 0 integer, 0 continuous)
  Constraints      : 474 initial, 474 maximal
  Objective        : minimize, 12 non-zeros (abs.min = 1, abs.max = 30)
Presolved Problem  :
  Problem name     : t_powerflow0039r
  Variables        : 961 (0 binary, 0 integer, 961 continuous)
  Implied int vars : 0 (0 binary, 0 integer, 0 continuous)
  Constraints      : 345 initial, 345 maximal
  Objective        : minimize, 11 non-zeros (abs.min = 1, abs.max = 30)
  Nonzeros         : 1290 constraint, 0 clique table
Presolvers         :   ExecTime  SetupTime  Calls  FixedVars   AggrVars   ChgTypes  ChgBounds   AddHoles    DelCons    AddCons   ChgSides   ChgCoefs
  boundshift       :       0.00       0.00      0          0          0          0          0          0          0          0          0          0
  convertinttobin  :       0.00       0.00      0          0          0          0          0          0          0          0          0          0
  domcol           :       0.00       0.00      1          0          0          0          0          0          0          0          0          0
  dualagg          :       0.00       0.00      0          0          0          0          0          0          0          0          0          0
  dualcomp         :       0.00       0.00      1          0          0          0          0          0          0          0          0          0
  dualinfer        :       0.00       0.00      0          0          0          0          0          0          0          0          0          0
  dualsparsify     :       0.00       0.00      1          0          0          0          0          0          0          0          0          0
  gateextraction   :       0.00       0.00      0          0          0          0          0          0          0          0          0          0
  implics          :       0.00       0.00      1          0          0          0          0          0          0          0          0          0
  implint          :       0.00       0.00      0          0          0          0          0          0          0          0          0          0
  inttobinary      :       0.00       0.00      0          0          0          0          0          0          0          0          0          0
  qpkktref         :       0.00       0.00      0          0          0          0          0          0          0          0          0          0
  redvub           :       0.00       0.00      0          0          0          0          0          0          0          0          0          0
  sparsify         :       0.00       0.00      1          0          0          0          0          0          0          0          0          0
  stuffing         :       0.00       0.00      0          0          0          0          0          0          0          0          0          0
  trivial          :       0.00       0.00      3          1          0          0          0          0          0          0          0          0
  tworowbnd        :       0.00       0.00      0          0          0          0          0          0          0          0          0          0
  dualfix          :       0.01       0.00      3          0          0          0          0          0          0          0          0          0
  genvbounds       :       0.00       0.00      0          0          0          0          0          0          0          0          0          0
  probing          :       0.00       0.00      0          0          0          0          0          0          0          0          0          0
  pseudoobj        :       0.00       0.00      0          0          0          0          0          0          0          0          0          0
  symmetry         :       0.01       0.00      1          0          0          0          0          0          0          0          0          0
  vbounds          :       0.00       0.00      0          0          0          0          0          0          0          0          0          0
  linear           :       0.00       0.00      4          1         41          0         81          0         81          0          0          0
  nonlinear        :       0.04       0.02      5          0          0          0        470          0          9          0          0          0
  components       :       0.00       0.00      1          0          0          0          0          0          0          0          0          0
  root node        :          -          -      -          0          -          -        539          -          -          -          -          -
Constraints        :     Number  MaxNumber  #Separate #Propagate    #EnfoLP    #EnfoRelax  #EnfoPS    #Check   #ResProp    Cutoffs    DomReds       Cuts    Applied      Conss   Children
  integral         :          0          0          0          0          0          0          0          9          0          0          0          0          0          0          0
  linear           :         38         38        161        187          0          0          0          9          0          0          0          0          0          0          0
  nonlinear        :        307        307        161        187          5          0          0          1          0         32          0       8202       3842          0          2
  fixedvar         :          0          0          0          0          0          0          0          0          0          0          0          0          0          0          0
  countsols        :          0          0          0          0          0          0          0          0          0          0          0          0          0          0          0
  components       :          0          0          0          0          0          0          0          0          0          0          0          0          0          0          0
Constraint Timings :  TotalTime  SetupTime   Separate  Propagate     EnfoLP     EnfoPS     EnfoRelax   Check    ResProp    SB-Prop
  integral         :       0.00       0.00       0.00       0.00       0.00       0.00       0.00       0.00       0.00       0.00
  linear           :       0.00       0.00       0.00       0.00       0.00       0.00       0.00       0.00       0.00       0.00
  nonlinear        :       4.67       0.02       4.59       0.05       0.01       0.00       0.00       0.00       0.00       0.00
  fixedvar         :       0.00       0.00       0.00       0.00       0.00       0.00       0.00       0.00       0.00       0.00
  countsols        :       0.00       0.00       0.00       0.00       0.00       0.00       0.00       0.00       0.00       0.00
  components       :       0.00       0.00       0.00       0.00       0.00       0.00       0.00       0.00       0.00       0.00
Propagators        : #Propagate   #ResProp    Cutoffs    DomReds
  dualfix          :          2          0          0          0
  genvbounds       :          0          0          0          0
  nlobbt           :          0          0          0          0
  obbt             :         11          0          0          0
  probing          :          0          0          0          0
  pseudoobj        :          9          0          0          9
  redcost          :          0          0          0          0
  rootredcost      :          0          0          0          0
  symmetry         :          0          0          0          0
  vbounds          :          0          0          0          0
Propagator Timings :  TotalTime  SetupTime   Presolve  Propagate    ResProp    SB-Prop
  dualfix          :       0.01       0.00       0.01       0.00       0.00       0.00
  genvbounds       :       0.00       0.00       0.00       0.00       0.00       0.00
  nlobbt           :       0.00       0.00       0.00       0.00       0.00       0.00
  obbt             :      11.70       0.00       0.00      11.70       0.00       0.00
  probing          :       0.00       0.00       0.00       0.00       0.00       0.00
  pseudoobj        :       0.00       0.00       0.00       0.00       0.00       0.00
  redcost          :       0.00       0.00       0.00       0.00       0.00       0.00
  rootredcost      :       0.00       0.00       0.00       0.00       0.00       0.00
  symmetry         :       0.01       0.00       0.01       0.00       0.00       0.00
  vbounds          :       0.00       0.00       0.00       0.00       0.00       0.00
Conflict Analysis  :       Time      Calls    Success    DomReds  Conflicts   Literals    Reconvs ReconvLits   Dualrays   Nonzeros   LP Iters   (pool size: [--,--])
  propagation      :       0.00          0          0          -          0        0.0          0        0.0          -          -          -
  infeasible LP    :       0.00          0          0          -          0        0.0          0        0.0          0        0.0          0
  bound exceed. LP :       0.00          0          0          -          0        0.0          0        0.0          0        0.0          0
  strong branching :       0.00          0          0          -          0        0.0          0        0.0          -          -          0
  pseudo solution  :       0.00          0          0          -          0        0.0          0        0.0          -          -          -
  applied globally :       0.00          -          -          0          0        0.0          -          -          0          -          -
  applied locally  :          -          -          -          0          0        0.0          -          -          0          -          -
Gen. Resolution CA :       Time      Calls    Success  Conflicts  LargeCoef  LongConfs    Length
  propagation      :       0.00          0          0          0          0          0       0.0
Separators         :   ExecTime  SetupTime      Calls  RootCalls    Cutoffs    DomReds  FoundCuts ViaPoolAdd  DirectAdd    Applied ViaPoolApp  DirectApp      Conss
  cut pool         :       0.00          -          0          0          -          -          0          0          -          -          -          -          -    (maximal pool size:          0)
  aggregation      :       0.00       0.00          0          0          0          0          0          0          0          0          0          0          0
  > cmir           :          -          -          -          -          -          -          -          0          0          0          0          0          -
  > flowcover      :          -          -          -          -          -          -          -          0          0          0          0          0          -
  > knapsackcover  :          -          -          -          -          -          -          -          0          0          0          0          0          -
  cgmip            :       0.00       0.00          0          0          0          0          0          0          0          0          0          0          0
  clique           :       0.00       0.00          0          0          0          0          0          0          0          0          0          0          0
  closecuts        :       0.00       0.00          0          0          0          0          0          0          0          0          0          0          0
  convexproj       :       0.00       0.00          0          0          0          0          0          0          0          0          0          0          0
  disjunctive      :       0.00       0.00          0          0          0          0          0          0          0          0          0          0          0
  eccuts           :       0.00       0.00          0          0          0          0          0          0          0          0          0          0          0
  flower           :       0.00       0.00        161        161          0          0          0          0          0          0          0          0          0
  gauge            :       0.00       0.00          0          0          0          0          0          0          0          0          0          0          0
  gomory           :       0.00       0.00          0          0          0          0          0          0          0          0          0          0          0
  > gomorymi       :          -          -          -          -          -          -          -          0          0          0          0          0          -
  > strongcg       :          -          -          -          -          -          -          -          0          0          0          0          0          -
  impliedbounds    :       0.00       0.00          0          0          0          0          0          0          0          0          0          0          0
  interminor       :       0.00       0.00          0          0          0          0          0          0          0          0          0          0          0
  intobj           :       0.00       0.00          0          0          0          0          0          0          0          0          0          0          0
  lagromory        :       0.00       0.00          0          0          0          0          0          0          0          0          0          0          0
  mcf              :       0.00       0.00          0          0          0          0          0          0          0          0          0          0          0
  minor            :       0.20       0.00        161        161          0          0      19666          0      19666       5741          0       5741          0
  mixing           :       0.00       0.00        161        161          0          0          0          0          0          0          0          0          0
  oddcycle         :       0.00       0.00          0          0          0          0          0          0          0          0          0          0          0
  rapidlearning    :       0.00       0.00          0          0          0          0          0          0          0          0          0          0          0
  rlt              :       0.01       0.00         10         10          0          0          0          0          0          0          0          0          0
  zerohalf         :       0.00       0.00          0          0          0          0          0          0          0          0          0          0          0
Cutselectors       :   ExecTime  SetupTime      Calls  RootCalls   Selected     Forced   Filtered  RootSelec   RootForc   RootFilt 
  hybrid           :       0.08       0.00        161        161      10262          0      17550      10262          0      17550
  ensemble         :       0.00       0.00          0          0          0          0          0          0          0          0
  dynamic          :       0.00       0.00          0          0          0          0          0          0          0          0
Pricers            :   ExecTime  SetupTime      Calls       Vars
  problem variables:       0.00          -          0          0
Branching Rules    :   ExecTime  SetupTime   BranchLP  BranchExt   BranchPS    Cutoffs    DomReds       Cuts      Conss   Children
  allfullstrong    :       0.00       0.00          0          0          0          0          0          0          0          0
  cloud            :       0.00       0.00          0          0          0          0          0          0          0          0
  distribution     :       0.00       0.00          0          0          0          0          0          0          0          0
  fullstrong       :       0.00       0.00          0          0          0          0          0          0          0          0
  gomory           :       0.00       0.00          0          0          0          0          0          0          0          0
  inference        :       0.00       0.00          0          0          0          0          0          0          0          0
  leastinf         :       0.00       0.00          0          0          0          0          0          0          0          0
  lookahead        :       0.00       0.00          0          0          0          0          0          0          0          0
  mostinf          :       0.00       0.00          0          0          0          0          0          0          0          0
  multaggr         :       0.00       0.00          0          0          0          0          0          0          0          0
  nodereopt        :       0.00       0.00          0          0          0          0          0          0          0          0
  pscost           :       0.00       0.00          0          0          0          0          0          0          0          0
  random           :       0.00       0.00          0          0          0          0          0          0          0          0
  relpscost        :       0.00       0.00          0          0          0          0          0          0          0          0
  vanillafullstrong:       0.00       0.00          0          0          0          0          0          0          0          0
Primal Heuristics  :   ExecTime  SetupTime      Calls      Found       Best
  LP solutions     :       0.00          -          -          0          0
  relax solutions  :       0.00          -          -          0          0
  pseudo solutions :       0.00          -          -          0          0
  strong branching :       0.00          -          -          0          0
  actconsdiving    :       0.00       0.00          0          0          0
  adaptivediving   :       0.00       0.00          0          0          0
  alns             :       0.03       0.00          1          0          0
  bound            :       0.00       0.00          0          0          0
  clique           :       0.00       0.00          0          0          0
  coefdiving       :       0.00       0.00          0          0          0
  completesol      :       0.00       0.00          0          0          0
  conflictdiving   :       0.00       0.00          0          0          0
  crossover        :       0.00       0.00          0          0          0
  dins             :       0.00       0.00          0          0          0
  distributiondivin:       0.00       0.00          0          0          0
  dks              :       0.00       0.00          0          0          0
  dps              :       0.00       0.00          0          0          0
  dualval          :       0.00       0.00          0          0          0
  farkasdiving     :       0.00       0.00          0          0          0
  feaspump         :       0.00       0.00          0          0          0
  fixandinfer      :       0.00       0.00          0          0          0
  fracdiving       :       0.00       0.00          0          0          0
  gins             :       0.00       0.00          0          0          0
  guideddiving     :       0.00       0.00          0          0          0
  indicator        :       0.00       0.00          0          0          0
  indicatordiving  :       0.00       0.00          0          0          0
  intdiving        :       0.00       0.00          0          0          0
  intshifting      :       0.00       0.00          0          0          0
  linesearchdiving :       0.00       0.00          0          0          0
  localbranching   :       0.00       0.00          0          0          0
  locks            :       0.00       0.00          0          0          0
  lpface           :       0.00       0.00          0          0          0
  mpec             :       0.00       0.00          0          0          0
  multistart       :       0.00       0.00          0          0          0
  mutation         :       0.00       0.00          0          0          0
  nlpdiving        :       0.00       0.00          0          0          0
  objpscostdiving  :       0.00       0.00          0          0          0
  octane           :       0.00       0.00          0          0          0
  ofins            :       0.00       0.00          0          0          0
  oneopt           :       0.00       0.00          0          0          0
  padm             :       0.00       0.00          0          0          0
  proximity        :       0.00       0.00          0          0          0
  pscostdiving     :       0.00       0.00          0          0          0
  randrounding     :       0.00       0.00          0          0          0
  rens             :       0.00       0.00          0          0          0
  reoptsols        :       0.00       0.00          0          0          0
  repair           :       0.00       0.00          0          0          0
  rins             :       0.00       0.00          0          0          0
  rootsoldiving    :       0.00       0.00          0          0          0
  rounding         :       0.00       0.00          0          0          0
  scheduler        :       0.00       0.00          0          0          0
  shiftandpropagate:       0.00       0.00          0          0          0
  shifting         :       0.00       0.00          0          0          0
  simplerounding   :       0.00       0.00          0          0          0
  subnlp           :       0.00       0.00          0          0          0
  trivial          :       0.00       0.00          2          0          0
  trivialnegation  :       0.00       0.00          0          0          0
  trustregion      :       0.00       0.00          0          0          0
  trysol           :       0.00       0.00          0          0          0
  twoopt           :       0.00       0.00          0          0          0
  undercover       :       0.07       0.00          1          0          0
  vbounds          :       0.00       0.00          0          0          0
  veclendiving     :       0.00       0.00          0          0          0
  zeroobj          :       0.00       0.00          0          0          0
  zirounding       :       0.00       0.00          0          0          0
  other solutions  :          -          -          -          0          -
LNS (Scheduler)    :      Calls  SetupTime  SolveTime SolveNodes       Sols       Best       Exp3    Exp3-IX  EpsGreedy        UCB TgtFixRate  Opt  Inf Node Stal  Sol  Usr Othr Actv
  zeroobjective    :          0       0.00       0.00          0          0          0    0.00000    1.00000   -1.00000    1.00000      0.900    0    0    0    0    0    0    0    1
  rens             :          0       0.00       0.00          0          0          0    0.00000    0.00000   -1.00000    1.00000      0.900    0    0    0    0    0    0    0    0
  rins             :          0       0.00       0.00          0          0          0    0.00000    0.00000   -1.00000    1.00000      0.900    0    0    0    0    0    0    0    0
  mutation         :          0       0.00       0.00          0          0          0    0.00000    0.00000   -1.00000    1.00000      0.900    0    0    0    0    0    0    0    0
  localbranching   :          0       0.00       0.00          0          0          0    0.00000    0.00000   -1.00000    1.00000      0.900    0    0    0    0    0    0    0    0
  crossover        :          0       0.00       0.00          0          0          0    0.00000    0.00000   -1.00000    1.00000      0.900    0    0    0    0    0    0    0    0
  proximity        :          0       0.00       0.00          0          0          0    0.00000    0.00000   -1.00000    1.00000      0.900    0    0    0    0    0    0    0    0
  dins             :          0       0.00       0.00          0          0          0    0.00000    0.00000   -1.00000    1.00000      0.900    0    0    0    0    0    0    0    0
  trustregion      :          0       0.00       0.00          0          0          0    0.00000    0.00000   -1.00000    1.00000      0.900    0    0    0    0    0    0    0    0
Expressions        :   #IntEval  IntEvalTi   #RevProp  RevPropTi    DomReds    Cutoffs  #Estimate  EstimTime  Branching  #Simplify SimplifyTi Simplified
  pow              :       8278       0.00       1312       0.00        550          0      70077       0.03        384       2011       0.00         27
  prod             :       1404       0.00        224       0.00         33          3     111174       0.01        910       2128       0.00         28
  sum              :       4455       0.00       2163       0.00        334          0        329       0.00          0       1116       0.00        258
  val              :          0       0.00          0       0.00          0          0          0       0.00          0          0       0.00          0
  var              :       6787       0.01          0       0.00          0          0          0       0.00          0       6585       0.00         87
Nlhdlrs            :    Detects  DetectAll DetectTime   #IntEval  IntEvalTi   #RevProp  RevPropTi    DomReds    Cutoffs   #Enforce   EnfoTime       Cuts  Branching
  soc              :          0          0       0.00          0       0.00          0       0.00          0          0          0       0.00          0          0
  convex           :          0          0       0.00          0       0.00          0       0.00          0          0          0       0.00          0          0
  concave          :          0          0       0.00          0       0.00          0       0.00          0          0          0       0.00          0          0
  signomial        :          0          0       0.00          0       0.00          0       0.00          0          0          0       0.00          0          0
  quotient         :          0          0       0.00          0       0.00          0       0.00          0          0          0       0.00          0          0
  quadratic        :        232       1164       0.00       8008       0.03       6939       0.03       1504          5      36530       3.79       1925          0
  default          :       1058       4267       0.01      11005       0.01       4422       0.00        917         15     181321       0.33       6277          0
  bilinear         :        182        182       0.00        234       0.00        200       0.00          0          0     109817       0.03          0          0
  perspective      :          0          0       0.00          0       0.00          0       0.00          0          0          0       0.00          0          0
Quadratic Nlhdlr   :    GenCuts    AddCuts  CouldImpr   NLargeRE AbrtBadRay AbrtPosPhi AbrtNonBas  NStrength  NMonoidal AveCutcoef    AveMonoidalImprov AveDensity AveEfficacy AveBCutsFrac 
  Quadratic Nlhdlr :       4440       1925          0       2514       1308          0          0          0          0   0.701151                   -1    0.12084  0.0121597          0
Quadratic SetSel   :       Rule      Calls    Changed   Fallback      Evals    AveGain IntercutTime   SelectTime    Applied     Active   RootAppl
  Quadratic SetSel :          0          0          0          0          0          0       2.8600       0.0000         24          3         24
LP                 :       Time      Calls Iterations  Iter/call   Iter/sec  Time-0-It Calls-0-It
  primal LP        :       0.04         27          0       0.00       0.00       0.04         27
  dual LP          :       5.81        175      85205     513.28   14665.23       0.01          9
  lex dual LP      :       0.00          0          0       0.00          -
  barrier LP       :       0.00          0          0       0.00          -       0.00          0
  resolve instable :       0.00          0          0       0.00          -
  diving/probing LP:      11.29        566     125295     221.37   11097.87
  strong branching :       0.00          0          0       0.00          -          -          -          0
    (at root node) :          -          0          0       0.00          -
  conflict analysis:       0.00          0          0       0.00          -
NLP relaxation     :
  solve time       :       0.00 (0 calls)
  convexity        :  nonconvex (38 linear rows, 84 convex ineq., 0 nonconvex ineq., 223 nonlinear eq. or two-sided ineq.)
Relaxators         :       Time      Calls    Cutoffs ImprBounds   ImprTime ReducedDom  Separated AddedConss
  benders          :       0.00          0          0          0       0.00          0          0          0
B&B Tree           :
  number of runs   :          1
  nodes            :          1 (1 internal, 0 leaves)
  feasible leaves  :          0
  infeas. leaves   :          0
  objective leaves :          0
  nodes (total)    :          1 (1 internal, 0 leaves)
  nodes left       :          2
  max depth        :          0
  max depth (total):          0
  backtracks       :          0 (0.0%)
  early backtracks :          0 (0.0%)
  nodes exc. ref.  :          0 (0.0%)
  delayed cutoffs  :          0
  repropagations   :          0 (0 domain reductions, 0 cutoffs)
  avg switch length:       1.00
  switching time   :       0.00
Root Node          :
  First LP value   : +2.57905214179312e+04
  First LP Iters   :       1829 (30483.33 Iter/sec)
  First LP Time    :       0.06
  Final Dual Bound : +4.11835737802242e+04
  Final Root Iters :      85219
  Root LP Estimate : +4.11835737802241e+04
Solution           :
  Solutions found  :          0 (0 improvements)
  Primal Bound     :          -
  Dual Bound       : +4.11835737802242e+04
...